22  

C       0.079935    1.402967    0.055985 
C      -1.145237    0.780524   -0.245157 
C       1.223947    0.622272    0.301230 
C       1.145442   -0.780397    0.244875 
C      -0.079477   -1.402250   -0.055994 
C      -1.224610   -0.623116   -0.300939 
H       2.181588    1.110601    0.536856 
H       0.146050    2.502004    0.099131 
H      -2.041473    1.391764   -0.437468 
H      -2.182495   -1.112876   -0.538305 
H      -0.140604   -2.500375   -0.099749 
H       2.041547   -1.392279    0.436240 
Rn     -4.327280    2.458830   -0.862634 
Rn     -5.091111   -0.302720   -2.692367 
Rn     -3.854542   -2.929349   -0.938845 
Fr      0.942708   -6.910462   -3.015431 
Kr      2.522656   -4.918800    2.113044 
Kr      4.299251   -2.136324    0.918823 
Kr      4.402836    2.173469    1.101106 
Kr      3.216767    4.838720   -0.748882 
Kr     -0.073775    5.005641    0.087098 
Fr     -2.531545    5.012574   -2.380796 
