22  

C      -0.158758    1.397367    0.000400 
C      -1.258706    0.565392   -0.277270 
C       1.098768    0.831604    0.277764 
C       1.258888   -0.565243    0.276984 
C       0.159089   -1.396584   -0.000437 
C      -1.099281   -0.832536   -0.277440 
H       1.958222    1.483693    0.494972 
H      -0.279673    2.492582    0.000007 
H      -2.243808    1.008250   -0.494729 
H      -1.958720   -1.486144   -0.496331 
H       0.284771   -2.490081   -0.000684 
H       2.243978   -1.008793    0.493521 
Rn     -4.327280    2.458830   -0.862634 
Rn     -5.091111   -0.302720   -2.692367 
Rn     -3.854542   -2.929349   -0.938845 
Fr      0.942708   -6.910462   -3.015431 
Kr      2.522656   -4.918800    2.113044 
Kr      4.299251   -2.136324    0.918823 
Kr      4.402836    2.173469    1.101106 
Kr      3.216767    4.838720   -0.748882 
Kr     -0.073775    5.005641    0.087098 
Fr     -2.531545    5.012574   -2.380796 
