22  

C      -0.392627    1.349309   -0.055201 
C      -1.333930    0.333081   -0.300961 
C       0.940201    1.015667    0.245867 
C       1.334086   -0.332914    0.300669 
C       0.392822   -1.348483    0.055133 
C      -0.940552   -1.016659   -0.245507 
H       1.675353    1.811703    0.438061 
H      -0.696887    2.407425   -0.099167 
H      -2.377961    0.594101   -0.536975 
H      -1.675419   -1.814254   -0.439322 
H       0.701493   -2.404126    0.098399 
H       2.378230   -0.594654    0.535790 
Rn     -4.327280    2.458830   -0.862634 
Rn     -5.091111   -0.302720   -2.692367 
Rn     -3.854542   -2.929349   -0.938845 
Fr      0.942708   -6.910462   -3.015431 
Kr      2.522656   -4.918800    2.113044 
Kr      4.299251   -2.136324    0.918823 
Kr      4.402836    2.173469    1.101106 
Kr      3.216767    4.838720   -0.748882 
Kr     -0.073775    5.005641    0.087098 
Fr     -2.531545    5.012574   -2.380796 
