22  

C      -0.718933    1.201151   -0.134950 
C      -1.370389   -0.032066   -0.319206 
C       0.650531    1.232402    0.184397 
C       1.370503    0.032249    0.318905 
C       0.718914   -1.200308    0.134833 
C      -0.650626   -1.233429   -0.183979 
H       1.158715    2.197839    0.328416 
H      -1.279187    2.143959   -0.241457 
H      -2.443033   -0.056874   -0.569519 
H      -1.158118   -2.200393   -0.329524 
H       1.282824   -2.139655    0.240490 
H       2.443449    0.056339    0.568369 
Rn     -4.327280    2.458830   -0.862634 
Rn     -5.091111   -0.302720   -2.692367 
Rn     -3.854542   -2.929349   -0.938845 
Fr      0.942708   -6.910462   -3.015431 
Kr      2.522656   -4.918800    2.113044 
Kr      4.299251   -2.136324    0.918823 
Kr      4.402836    2.173469    1.101106 
Kr      3.216767    4.838720   -0.748882 
Kr     -0.073775    5.005641    0.087098 
Fr     -2.531545    5.012574   -2.380796 
