76  

C       1.314644    3.103715   -0.002818 
C       0.036900    3.576734    0.000280 
C      -1.177616    2.784409   -0.000758 
C      -2.488611    3.234127   -0.000567 
H      -2.756550    4.280813   -0.001218 
C       2.570564    3.805844    0.002104 
H       2.672100    4.878201    0.005933 
C      -0.134582    5.060862    0.010703 
C      -0.209015    5.796236   -1.170673 
C      -0.389658    7.172996   -1.172679 
C      -0.505371    7.849012    0.034431 
C      -0.439406    7.146007    1.229907 
C      -0.257943    5.769848    1.204195 
O       1.602819    1.749536   -0.008195 
F      -0.101784    5.176323   -2.349429 
F      -0.450881    7.848792   -2.320857 
F      -0.676621    9.168711    0.045786 
F      -0.547788    7.795642    2.389615 
F      -0.197751    5.123272    2.371849 
S      -1.152723    1.056055   -0.000000 
C      -2.976996   -1.580769    0.002818 
C      -3.559835   -0.349234   -0.000280 
C      -2.876643    0.929858    0.000758 
C      -3.439175    2.196552    0.000567 
H      -4.505266    2.372024    0.001218 
C      -3.566719   -2.893226   -0.002104 
H      -4.626106   -3.088060   -0.005933 
C      -5.053270   -0.308066   -0.010703 
C      -5.792335   -0.298163    1.170673 
C      -7.179612   -0.238489    1.172679 
C      -7.863153   -0.182278   -0.034431 
C      -7.157072   -0.186574   -1.229907 
C      -5.770321   -0.247116   -1.204195 
O      -1.602819   -1.749536    0.008195 
F      -5.165424   -0.350826    2.349429 
F      -7.858173   -0.236539    2.320857 
F      -9.192766   -0.126976   -0.045786 
F      -7.813692   -0.135360   -2.389615 
F      -5.120959   -0.250591   -2.371849 
C      -1.314644   -3.103715    0.002818 
C      -0.036900   -3.576734   -0.000280 
C       1.177616   -2.784409    0.000758 
C       2.488611   -3.234127    0.000567 
H       2.756550   -4.280813    0.001218 
C      -2.570564   -3.805844   -0.002104 
H      -2.672100   -4.878201   -0.005933 
C       0.134582   -5.060862   -0.010703 
C       0.209015   -5.796236    1.170673 
C       0.389658   -7.172996    1.172679 
C       0.505371   -7.849012   -0.034431 
C       0.439406   -7.146007   -1.229907 
C       0.257943   -5.769848   -1.204195 
F       0.101784   -5.176323    2.349429 
F       0.450881   -7.848792    2.320857 
F       0.676621   -9.168711   -0.045786 
F       0.547788   -7.795642   -2.389615 
F       0.197751   -5.123272   -2.371849 
S       1.152723   -1.056055   -0.000000 
C       2.976996    1.580769   -0.002818 
C       3.559835    0.349234    0.000280 
C       2.876643   -0.929858   -0.000758 
C       3.439175   -2.196552   -0.000567 
H       4.505266   -2.372024   -0.001218 
C       3.566719    2.893226    0.002104 
H       4.626106    3.088060    0.005933 
C       5.053270    0.308066    0.010703 
C       5.792335    0.298163   -1.170673 
C       7.179612    0.238489   -1.172679 
C       7.863153    0.182278    0.034431 
C       7.157072    0.186574    1.229907 
C       5.770321    0.247116    1.204195 
F       5.165424    0.350826   -2.349429 
F       7.858173    0.236539   -2.320857 
F       9.192766    0.126976    0.045786 
F       7.813692    0.135360    2.389615 
F       5.120959    0.250591    2.371849 
