76  

C       2.143742    2.344145    1.127251 
C       1.798574    1.962795    2.388924 
C       0.848955    0.927787    2.749218 
C       0.474864    0.519171    4.019668 
H       0.873460    0.955217    4.924282 
C       3.070193    3.348114    0.675499 
H       3.653478    3.979122    1.325023 
C       2.467236    2.677234    3.517914 
C       1.928467    3.838005    4.069552 
C       2.530305    4.497903    5.132768 
C       3.704278    3.992386    5.674747 
C       4.265702    2.835471    5.151218 
C       3.644100    2.195032    4.087803 
O       1.596776    1.755072    0.000000 
F       0.799474    4.350645    3.571726 
F       1.992367    5.610436    5.634420 
F       4.291833    4.616914    6.692492 
F       5.394929    2.351284    5.669971 
F       4.210482    1.084716    3.606650 
S      -0.000000   -0.000000    1.563337 
C      -2.143743   -2.344145    1.127251 
C      -1.798574   -1.962795    2.388924 
C      -0.848955   -0.927787    2.749218 
C      -0.474864   -0.519171    4.019668 
H      -0.873460   -0.955217    4.924282 
C      -3.070193   -3.348113    0.675499 
H      -3.653478   -3.979123    1.325023 
C      -2.467236   -2.677234    3.517914 
C      -1.928467   -3.838005    4.069552 
C      -2.530305   -4.497903    5.132768 
C      -3.704279   -3.992387    5.674747 
C      -4.265703   -2.835472    5.151218 
C      -3.644099   -2.195032    4.087803 
O      -1.596776   -1.755072   -0.000000 
F      -0.799474   -4.350645    3.571726 
F      -1.992367   -5.610436    5.634421 
F      -4.291833   -4.616914    6.692491 
F      -5.394929   -2.351284    5.669971 
F      -4.210481   -1.084715    3.606650 
C      -2.143742   -2.344145   -1.127251 
C      -1.798574   -1.962795   -2.388924 
C      -0.848955   -0.927787   -2.749218 
C      -0.474864   -0.519171   -4.019668 
H      -0.873460   -0.955217   -4.924282 
C      -3.070193   -3.348114   -0.675499 
H      -3.653478   -3.979122   -1.325023 
C      -2.467236   -2.677234   -3.517914 
C      -1.928467   -3.838005   -4.069552 
C      -2.530305   -4.497903   -5.132768 
C      -3.704278   -3.992386   -5.674747 
C      -4.265702   -2.835471   -5.151218 
C      -3.644100   -2.195032   -4.087803 
F      -0.799474   -4.350645   -3.571726 
F      -1.992367   -5.610436   -5.634420 
F      -4.291833   -4.616914   -6.692492 
F      -5.394929   -2.351284   -5.669971 
F      -4.210482   -1.084716   -3.606650 
S       0.000000    0.000000   -1.563337 
C       2.143743    2.344145   -1.127251 
C       1.798574    1.962795   -2.388924 
C       0.848955    0.927787   -2.749218 
C       0.474864    0.519171   -4.019668 
H       0.873460    0.955217   -4.924282 
C       3.070193    3.348113   -0.675499 
H       3.653478    3.979123   -1.325023 
C       2.467236    2.677234   -3.517914 
C       1.928467    3.838005   -4.069552 
C       2.530305    4.497903   -5.132768 
C       3.704279    3.992387   -5.674747 
C       4.265703    2.835472   -5.151218 
C       3.644099    2.195032   -4.087803 
F       0.799474    4.350645   -3.571726 
F       1.992367    5.610436   -5.634421 
F       4.291833    4.616914   -6.692491 
F       5.394929    2.351284   -5.669971 
F       4.210481    1.084715   -3.606650 
