9   

H       1.626540   -0.037690    0.845610 
C       1.011200   -0.045290   -0.062600 
H       1.325260    0.803090   -0.684700 
H       1.250120   -0.961180   -0.618890 
C      -0.462080    0.030630    0.294700 
H      -0.758000   -0.826320    0.931560 
H      -0.682220    0.953690    0.866560 
O      -1.198130    0.018090   -0.907240 
H      -2.112700    0.064980   -0.664990 
$set
cub_cal 1
chrg  0
$end